src/Test_Network/C1_Master.dss
Clear
New Circuit.IEEE8500  
~ pu=1.05  r1=0  x1=0.001  r0=0  x0=0.001  
Redirect  LineCodes2.dss
Redirect  Triplex_Linecodes.dss
Redirect  C1_Lines.dss
Redirect  C1_Transformers.dss
Redirect  C1_LoadXfmrs.dss    ! Load Transformers
Redirect  C1_Triplex_Lines.dss
Redirect  C1_Loads.dss     ! Balanced Loads
Redirect  C1_Capacitors.dss
Redirect  C1_CapControls.dss
Redirect  C1_Regulators.dss
Set voltagebases=[115, 12.47,  0.48, 0.208]
Calcvoltagebases     ! This also establishes the bus list
Buscoords  C1_Buscoords.dss
